5
CELL(abcABC): 3.951309 3.951309 3.951309 90.000000 90.000000 90.000000 cell{angstrom}  Traj: positions{angstrom}
Pd       3.93812120       3.93812120       3.93812120
Pd       3.89098780       2.01319135       2.01318013
Pd       2.01319173       3.89098780       2.01318001
Pd       2.01319153       2.01319092       3.89098780
H        1.16432158       1.16432153       1.16431022
